[General]
**.vector-recording = false
sim-time-limit = 50s

[Config Bus_1]
network = Net_bus
**.host1.cli.destAddress = "host2"

[Config Bus_2]
network = Net_bus1
**.host1.cli.destAddress = "host2" #адрес на который идут пакеты
**.cli.sendInterval = exponential(0.5s) #интервал между сообщениями
**.cli.reqLength = 1400*1B #длинна запросов
**.cli.respLength = intWithUnit(3000B) #длина ответов


[Config Bus_3]
network = Net_bus1
**.host1.cli.destAddress = "host2" #адрес на который идут пакеты
**.cli.sendInterval = exponential(0.5s) #интервал между сообщениями
**.cli.reqLength = 1400*1B #длинна запросов
**.cli.respLength = intWithUnit(3000B) #длина ответов


[Config Bus_4]
network = Net_bus2
**.host1.cli.destAddress = "host2" #адрес на который идут пакеты
**.host2.cli.destAddress = "host1" #адрес на который идут пакеты
**.cli.sendInterval = exponential(0.5s) #интервал между сообщениями
**.cli.reqLength = 1400*1B #длинна запросов
**.cli.respLength = intWithUnit(3000B) #длина ответов


[Config Bus_5]
network = Net_bus3
**.host1.cli.destAddress = ""
**.cli.destAddress = "host1"
**.cli.sendInterval = exponential(10us) #интервал между сообщениями
**.cli.reqLength = 1400*1B #длинна запросов
**.cli.respLength = intWithUnit(3000B) #длина ответов


[Config Bus_6]
network = Net_bus4
**.host1.cli.destAddress = ""
**.cli.destAddress = "host1"
**.cli.sendInterval = exponential(1ms) #интервал между сообщениями
**.cli.reqLength = 100*1B #длинна запросов
**.cli.respLength = intWithUnit(1500B) #длина ответов
